<?xml version="1.0" encoding="UTF-8"?>

<!-- generated on 2024-05-13 21:42:56 by Eclipse SUMO netedit Version 1.20.0
<configuration xmlns:xsi="http://www.w3.org/2001/XMLSchema-instance" xsi:noNamespaceSchemaLocation="http://sumo.dlr.de/xsd/neteditConfiguration.xsd">

    <input>
        <sumocfg-file value="/Users/Ankai/Desktop/what.sumocfg"/>
        <route-files value="/Users/Ankai/Desktop/virtual_edge/code/SUMO/street.rou.xml"/>
        <sumo-net-file value="/Users/Ankai/Desktop/virtual_edge/code/SUMO/street.net.xml"/>
    </input>

    <output>
        <output-file value="/Users/Ankai/Desktop/virtual_edge/code/SUMO/street.net.xml"/>
    </output>

    <processing>
        <offset.disable-normalization value="true"/>
    </processing>

    <junctions>
        <no-turnarounds value="true"/>
    </junctions>

    <netedit>
        <new-network value="false"/>
    </netedit>

</configuration>
-->

<net version="1.20" junctionCornerDetail="5" limitTurnSpeed="5.50" xmlns:xsi="http://www.w3.org/2001/XMLSchema-instance" xsi:noNamespaceSchemaLocation="http://sumo.dlr.de/xsd/net_file.xsd">

    <location netOffset="0.00,0.00" convBoundary="-100.00,0.00,100.00,0.00" origBoundary="10000000000.00,10000000000.00,-10000000000.00,-10000000000.00" projParameter="!"/>

    <edge id=":J2_0" function="internal">
        <lane id=":J2_0_0" index="0" speed="13.89" length="0.10" shape="0.00,1.60 0.00,1.60"/>
    </edge>
    <edge id=":J2_1" function="internal">
        <lane id=":J2_1_0" index="0" speed="13.89" length="0.10" shape="0.00,-1.60 0.00,-1.60"/>
    </edge>

    <edge id="-E0" from="J2" to="J1" priority="-1">
        <lane id="-E0_0" index="0" speed="13.89" length="100.00" shape="0.00,1.60 -100.00,1.60"/>
    </edge>
    <edge id="-E1" from="J3" to="J2" priority="-1">
        <lane id="-E1_0" index="0" speed="13.89" length="100.00" shape="100.00,1.60 0.00,1.60"/>
    </edge>
    <edge id="E0" from="J1" to="J2" priority="-1">
        <lane id="E0_0" index="0" speed="13.89" length="100.00" shape="-100.00,-1.60 0.00,-1.60"/>
    </edge>
    <edge id="E1" from="J2" to="J3" priority="-1">
        <lane id="E1_0" index="0" speed="13.89" length="100.00" shape="0.00,-1.60 100.00,-1.60"/>
    </edge>

    <junction id="J1" type="dead_end" x="-100.00" y="0.00" incLanes="-E0_0" intLanes="" shape="-100.00,0.00 -100.00,3.20 -100.00,0.00"/>
    <junction id="J2" type="priority" x="0.00" y="0.00" incLanes="-E1_0 E0_0" intLanes=":J2_0_0 :J2_1_0" shape="0.00,3.20 0.00,-3.20 0.00,3.20">
        <request index="0" response="00" foes="00" cont="0"/>
        <request index="1" response="00" foes="00" cont="0"/>
    </junction>
    <junction id="J3" type="dead_end" x="100.00" y="0.00" incLanes="E1_0" intLanes="" shape="100.00,0.00 100.00,-3.20 100.00,0.00"/>

    <connection from="-E1" to="-E0" fromLane="0" toLane="0" via=":J2_0_0" dir="s" state="M"/>
    <connection from="E0" to="E1" fromLane="0" toLane="0" via=":J2_1_0" dir="s" state="M"/>

    <connection from=":J2_0" to="-E0" fromLane="0" toLane="0" dir="s" state="M"/>
    <connection from=":J2_1" to="E1" fromLane="0" toLane="0" dir="s" state="M"/>

</net>
