<?xml version="1.0" encoding="UTF-8"?>

<!-- generated on 2024-05-13 21:42:02 by Eclipse SUMO netedit Version 1.20.0
-->

<routes xmlns:xsi="http://www.w3.org/2001/XMLSchema-instance" xsi:noNamespaceSchemaLocation="http://sumo.dlr.de/xsd/routes_file.xsd">
    <!-- Routes -->
    <route id="r_0" edges="E0 E1"/>
    <!-- Vehicles, persons and containers (sorted by depart) -->
    <trip id="v_1" depart="0.00" color="red" from="E0" to="E0"/>
    <trip id="v_2" depart="0.00" color="cyan" from="-E1" to="-E1"/>
</routes>
